[TITLE]
leak_node = 213_229
leak_demand = 10
[JUNCTIONS]
125          11.0          
185          16.0          
127          56.0          
121          -2.0          
120          0.0          
123          11.0          
161          4.0          
163          5.0          
129          51.0          
164          5.0          
167          -5.0          
166          -2.0          
255          27.0          
195          15.5          
197          23.0          
239          13.0          
191          25.0          
40          131.9          
237          14.0          
231          5.0          
199          -2.0          
271          6.0          
273          8.0          
275          10.0          
119          2.0          
115          14.0          
117          13.6          
111          10.0          
113          2.0          
204          21.0          
179          8.0          
177          8.0          
173          -4.0          
171          -4.0          
207          9.0          
15          32.0          
10          147.0          
50          116.5          
265          0.0          
169          -5.0          
225          8.0          
229          10.5          
267          21.0          
205          21.0          
263          0.0          
261          0.0          
193          18.0          
269          0.0          
143          -4.5          
601          0.0          
141          4.0          
147          18.5          
145          1.0          
149          16.0          
20          129.0          
61          0.0          
60          0.0          
217          6.0          
259          25.0          
213          7.0          
211          7.0          
253          36.0          
251          30.0          
257          17.0          
219          4.0          
139          31.0          
131          6.0          
151          33.5          
153          66.2          
157          13.1          
159          6.0          
215          7.0          
35          12.5          
213_229          8.75          
187          12.5          
249          18.0          
206          1.0          
184          16.0          
183          11.0          
201          0.1          
181          8.0          
203          2.0          
241          13.0          
243          14.0          
208          16.0          
209          -2.0          
189          4.0          
247          18.0          
109          20.3          
107          22.0          
105          28.5          
103          43.0          
101          42.0          

[RESERVOIRS]
River          220.0                    
Lake          167.0                    

[TANKS]
3          129.0          29.0          4.0          35.5          164.0          0.0                    
1          131.9          13.1          0.1          32.1          85.0          0.0                    
2          116.5          23.5          6.5          40.3          50.0          0.0                    

[PIPES]
131          125          127          3240.0          24.0          130.0          0.0          Open          
169          125          153          4560.0          8.0          130.0          0.0          Open          
202          185          184          99.9          8.0          130.0          0.0          Open          
135          127          129          900.0          24.0          130.0          0.0          Open          
129          121          125          930.0          24.0          130.0          0.0          Open          
122          121          120          2050.0          8.0          130.0          0.0          Open          
123          121          119          2000.0          30.0          141.0          0.0          Open          
121          120          117          1870.0          12.0          130.0          0.0          Open          
297          120          257          645.0          8.0          130.0          0.0          Open          
125          123          121          1500.0          30.0          141.0          0.0          Open          
20          3          20          99.0          99.0          199.0          0.0          Open          
221          161          195          2300.0          8.0          130.0          0.0          Open          
179          161          163          430.0          30.0          141.0          0.0          Open          
321          163          265          1200.0          30.0          141.0          0.0          Open          
180          163          164          150.0          14.0          130.0          0.0          Open          
137          129          131          6480.0          16.0          130.0          0.0          Open          
145          129          139          2750.0          8.0          130.0          0.0          Open          
181          164          166          490.0          14.0          130.0          0.0          Open          
185          167          169          60.0          8.0          130.0          0.0          Open          
291          255          253          1100.0          10.0          130.0          0.0          Open          
293          255          251          1100.0          8.0          130.0          0.0          Open          
40          1          40          99.0          99.0          199.0          0.0          Open          
223          197          191          1150.0          12.0          130.0          0.0          Open          
275          239          241          35.0          12.0          130.0          0.0          Open          
283          239          249          430.0          12.0          130.0          0.0          Open          
213          191          187          2560.0          12.0          130.0          0.0          Open          
217          191          193          520.0          12.0          130.0          0.0          Open          
201          40          179          1190.0          12.0          130.0          0.0          Open          
271          237          229          790.0          8.0          130.0          0.0          Open          
273          237          239          510.0          12.0          130.0          0.0          Open          
235          199          273          725.0          12.0          130.0          0.0          Open          
231          199          201          630.0          24.0          141.0          0.0          Open          
191          271          171          760.0          24.0          130.0          0.0          Open          
319          273          205          645.0          12.0          130.0          0.0          Open          
317          273          275          2230.0          8.0          130.0          0.0          Open          
239          275          207          1430.0          12.0          130.0          0.0          Open          
171          119          151          3460.0          12.0          130.0          0.0          Open          
120          119          120          730.0          12.0          130.0          0.0          Open          
173          119          157          2080.0          30.0          141.0          0.0          Open          
119          115          117          2180.0          12.0          130.0          0.0          Open          
112          115          111          1160.0          12.0          130.0          0.0          Open          
114          115          113          2000.0          8.0          130.0          0.0          Open          
305          117          261          645.0          12.0          130.0          0.0          Open          
225          111          197          2790.0          12.0          130.0          0.0          Open          
113          111          113          1680.0          12.0          130.0          0.0          Open          
116          113          193          1660.0          12.0          130.0          0.0          Open          
205          204          185          1325.0          12.0          130.0          0.0          Open          
50          2          50          99.0          99.0          199.0          0.0          Open          
199          179          183          210.0          12.0          130.0          0.0          Open          
197          177          179          30.0          12.0          130.0          0.0          Open          
229          173          199          4000.0          24.0          141.0          0.0          Open          
189          171          173          50.0          30.0          141.0          0.0          Open          
238          207          206          450.0          12.0          130.0          0.0          Open          
151          15          143          1650.0          8.0          130.0          0.0          Open          
101          10          101          14200.0          18.0          110.0          0.0          Open          
289          50          255          925.0          10.0          130.0          0.0          Open          
183          265          169          590.0          30.0          141.0          0.0          Open          
309          265          267          1580.0          8.0          130.0          0.0          Open          
211          169          269          646.0          12.0          130.0          0.0          Open          
187          169          171          1270.0          30.0          141.0          0.0          Open          
261_2          229          213_229          1100.0          8.0          130.0          0.0          Open          
263          229          231          1960.0          12.0          130.0          0.0          Open          
215          267          189          1230.0          12.0          130.0          0.0          Open          
237          205          207          1200.0          12.0          130.0          0.0          Open          
117          263          105          2725.0          12.0          130.0          0.0          Open          
307          261          263          350.0          12.0          130.0          0.0          Open          
219          193          195          360.0          12.0          130.0          0.0          Open          
311          193          267          1170.0          12.0          130.0          0.0          Open          
325          269          271          1290.0          8.0          130.0          0.0          Open          
313          269          189          646.0          12.0          130.0          0.0          Open          
149          143          141          1400.0          8.0          130.0          0.0          Open          
333          601          61          1.0          30.0          140.0          0.0          Open          
159          147          149          880.0          12.0          130.0          0.0          Open          
155          147          145          2200.0          12.0          130.0          0.0          Open          
153          145          141          3510.0          12.0          130.0          0.0          Open          
161          149          151          1020.0          8.0          130.0          0.0          Open          
133          20          127          785.0          20.0          130.0          0.0          Open          
329          61          123          45500.0          30.0          140.0          0.0          Open          
330          60          601          1.0          30.0          140.0          0.0          Closed          
251          217          219          2050.0          14.0          130.0          0.0          Open          
257          217          225          1560.0          12.0          130.0          0.0          Open          
301          259          263          1400.0          8.0          130.0          0.0          Open          
247          213          215          4285.0          16.0          130.0          0.0          Open          
261_1          213          213_229          1100.0          8.0          130.0          0.0          Open          
269          211          237          2080.0          12.0          130.0          0.0          Open          
245          211          213          990.0          16.0          130.0          0.0          Open          
299          257          259          350.0          8.0          130.0          0.0          Open          
303          257          261          1400.0          8.0          130.0          0.0          Open          
147          139          141          2050.0          8.0          130.0          0.0          Open          
60          River          60          1231.0          24.0          140.0          0.0          Open          
163          151          153          1170.0          12.0          130.0          0.0          Open          
175          157          159          2910.0          30.0          141.0          0.0          Open          
177          159          161          2000.0          30.0          141.0          0.0          Open          
249          215          217          1660.0          16.0          130.0          0.0          Open          
193          35          181          30.0          24.0          130.0          0.0          Open          
186          187          204          99.9          8.0          130.0          0.0          Open          
295          249          251          1450.0          12.0          130.0          0.0          Open          
240          206          208          510.0          12.0          130.0          0.0          Open          
204          184          205          4530.0          12.0          130.0          0.0          Open          
203          183          185          510.0          8.0          130.0          0.0          Open          
323          201          275          300.0          12.0          130.0          0.0          Open          
233          201          203          120.0          24.0          130.0          0.0          Open          
315          181          271          260.0          24.0          130.0          0.0          Open          
195          181          177          30.0          12.0          130.0          0.0          Open          
277          241          243          2200.0          12.0          130.0          0.0          Open          
281          241          247          445.0          10.0          130.0          0.0          Open          
241          208          209          885.0          12.0          130.0          0.0          Open          
243          209          211          1210.0          16.0          130.0          0.0          Open          
209          189          187          500.0          8.0          130.0          0.0          Open          
207          189          183          1350.0          12.0          130.0          0.0          Open          
285          247          249          10.0          12.0          130.0          0.0          Open          
287          247          255          1390.0          10.0          130.0          0.0          Open          
111          109          111          2000.0          12.0          130.0          0.0          Open          
115          107          115          1950.0          8.0          130.0          0.0          Open          
107          105          107          1470.0          12.0          130.0          0.0          Open          
109          103          109          3940.0          16.0          130.0          0.0          Open          
105          101          105          2540.0          12.0          130.0          0.0          Open          
103          101          103          1350.0          16.0          130.0          0.0          Open          

[PUMPS]
335          60          61          HEAD 2          
10          Lake          10          HEAD 1          

[VALVES]

[TAGS]
NODE          213_229          middle_node          

[DEMANDS]
125          45.6                    
185          25.65                    
127          17.66                    
121          41.63                    
120          0.0                    
123          1.0          2          
161          15.8                    
163          9.42                    
129          0.0                    
164          0.0                    
167          14.56                    
166          2.6                    
255          40.39                    
195          0.0                    
197          17.04                    
239          44.61                    
191          81.9                    
40          0.0                    
237          15.61                    
231          16.48                    
199          119.32                    
271          0.0                    
273          0.0                    
275          0.0                    
119          176.13                    
115          52.1                    
117          117.71                    
111          141.94                    
113          20.01                    
204          0.0                    
179          0.0                    
177          58.17                    
173          0.0                    
171          39.34                    
207          69.39                    
15          1.0          3          
10          0.0                    
50          0.0                    
265          0.0                    
169          0.0                    
225          22.8                    
229          64.18                    
267          0.0                    
205          65.36                    
263          0.0                    
261          0.0                    
193          71.31                    
269          0.0                    
143          6.2                    
601          0.0                    
141          9.85                    
147          8.55                    
145          27.63                    
149          27.07                    
20          0.0                    
61          0.0                    
60          0.0                    
217          24.22                    
259          0.0                    
213          13.94                    
211          8.67                    
253          54.52                    
251          24.16                    
257          0.0                    
219          41.32                    
139          5.89                    
131          42.75                    
151          144.48                    
153          44.17                    
157          51.79                    
159          41.32                    
215          92.19                    
35          1.0          4          
213_229          0.0                    
187          0.0                    
249          0.0                    
206          0.0                    
184          0.0                    
183          0.0                    
201          44.61                    
181          0.0                    
203          1.0          5          
241          0.0                    
243          4.34                    
208          0.0                    
209          0.87                    
189          107.92                    
247          70.38                    
109          231.4                    
107          54.64                    
105          135.37                    
103          133.2                    
101          189.95                    

[STATUS]
10          Closed          

[PATTERNS]
4          1637.0          1706.0          1719.0          1719.0          1791.0          1819.0
4          1777.0          1842.0          1815.0          1825.0          1856.0          1801.0
4          1819.0          1733.0          1664.0          1620.0          1613.0          1620.0
4          1616.0          1647.0          1627.0          1627.0          1671.0          1668.0
5          4439.0          4531.0          4511.0          4582.0          4531.0          4582.0
5          4572.0          4613.0          4643.0          4643.0          4592.0          4613.0
5          4531.0          4521.0          4449.0          4439.0          4449.0          4460.0
5          4439.0          4419.0          4368.0          4399.0          4470.0          4480.0
1          1.34          1.94          1.46          1.44          0.76          0.92
1          0.85          1.07          0.96          1.1          1.08          1.19
1          1.16          1.08          0.96          0.83          0.79          0.74
1          0.64          0.64          0.85          0.96          1.24          1.67
2          0.0          0.0          0.0          0.0          0.0          1219.0
2          0.0          0.0          0.0          1866.0          1836.0          1818.0
2          1818.0          1822.0          1822.0          1817.0          1824.0          1816.0
2          1833.0          1817.0          1830.0          1814.0          1840.0          1859.0
3          620.0          620.0          620.0          620.0          620.0          360.0
3          360.0          0.0          0.0          0.0          0.0          360.0
3          360.0          360.0          360.0          360.0          0.0          0.0
3          0.0          0.0          0.0          0.0          360.0          360.0

[CURVES]
1          0.0          104.0
1          2000.0          92.0
1          4000.0          63.0
2          0.0          200.0
2          8000.0          138.0
2          14000.0          86.0

[CONTROLS]
Link 10 OPEN AT TIME 1
Link 10 CLOSED AT TIME 15
Link 335 OPEN IF Node 1 BELOW 17.1
Link 335 CLOSED IF Node 1 ABOVE 19.1
Link 330 CLOSED IF Node 1 BELOW 17.1
Link 330 OPEN IF Node 1 ABOVE 19.1

[RULES]

[ENERGY]
 Global Efficiency  	75
 Global Price       	0.0
 Demand Charge      	0.0

[EMITTERS]
213_229          1.30245458145          

[QUALITY]

[SOURCES]

[REACTIONS]
 Order Bulk            	1
 Order Tank            	1
 Order Wall            	1
 Global Bulk           	0.0
 Global Wall           	0.0
 Limiting Potential    	0.0
 Roughness Correlation 	0.0

[MIXING]

[TIMES]
report timestep          1:00
statistic          none
hydraulic timestep          1:00
duration          24:00
pattern start          0:00
report start          0:00
start clocktime          12 am
quality timestep          0:05
pattern timestep          1:00

[REPORT]
 Status             	Yes
 Summary            	No
 Page               	0

[OPTIONS]
tolerance          0.01
units          GPM
headloss          H-W
viscosity          1.0
demand multiplier          1.0
diffusivity          1.0
trials          40
unbalanced          Continue 10
pattern          1
emitter exponent          0.5
specific gravity          1.0
accuracy          0.001
quality          Trace Lake

[COORDINATES]
125          24.59          25.64
185          25.01          9.67
127          29.29          26.4
121          23.54          25.5
120          22.08          23.1
123          23.37          27.31
3          29.41          27.27
161          25.1          15.28
163          25.39          14.98
129          30.32          26.39
164          25.98          15.14
167          25.88          12.98
166          26.48          15.13
255          33.51          2.45
1          27.46          9.84
195          23.18          14.72
197          20.97          15.18
239          35.76          2.31
191          22.1          14.07
40          27.02          9.81
237          35.37          3.08
231          38.38          2.54
199          29.42          8.44
271          25.97          11.0
273          29.16          7.38
275          31.07          8.29
119          23.7          22.76
115          20.98          19.18
117          21.69          21.28
111          20.21          17.53
113          22.04          16.61
204          23.8          10.9
2          32.99          3.45
179          25.71          10.4
177          26.0          11.0
173          26.87          11.59
171          26.65          11.8
207          31.0          6.61
15          38.68          23.76
10          9.0          27.85
50          33.01          3.01
265          25.39          13.6
169          25.68          12.74
225          43.53          7.38
229          36.16          3.49
267          23.38          12.95
205          29.2          6.46
263          20.32          21.57
261          20.79          21.45
193          22.88          14.35
269          25.03          12.14
143          37.47          21.97
601          23.0          29.49
141          35.68          23.08
147          30.24          20.38
145          33.02          19.29
149          29.62          20.74
20          29.44          26.91
61          23.71          29.03
60          23.9          29.94
217          42.11          8.67
259          20.8          23.4
213          35.26          6.16
211          34.2          5.54
253          32.17          1.88
251          34.15          1.1
257          21.17          23.32
219          44.86          9.32
139          33.28          24.54
River          24.15          31.06
131          37.89          29.55
151          28.29          21.39
153          28.13          22.63
157          24.85          20.16
Lake          8.0          27.53
159          23.12          17.5
215          39.95          8.73
35          25.46          10.52
213_229          35.709999999999994          4.825
187          23.64          11.04
249          35.02          1.81
206          31.66          6.64
184          25.15          9.52
183          25.45          10.18
201          30.89          8.57
181          25.72          10.74
203          31.14          8.89
241          35.87          2.11
243          37.04          0.0
208          32.54          6.81
209          33.76          6.59
189          24.15          11.37
247          35.02          2.05
109          17.64          18.92
107          18.45          20.46
105          16.97          21.28
103          12.96          21.31
101          13.81          22.94

[VERTICES]

[LABELS]
8.0          29.42          "LAKE"          
25.0          31.1          "RIVER"          

[BACKDROP]
 DIMENSIONS     	6.16            	-1.55           	46.70           	32.61           
 UNITS          	None
 FILE           	
 OFFSET         	0.00            	0.00            

